Version 4
SHEET 1 1176 680
WIRE 320 32 272 32
WIRE 496 32 400 32
WIRE 752 32 752 0
WIRE 752 160 752 112
WIRE 16 176 -16 176
WIRE 128 176 96 176
WIRE 192 176 160 176
WIRE 272 176 272 32
WIRE 272 176 192 176
WIRE 336 176 272 176
WIRE 496 192 496 32
WIRE 496 192 400 192
WIRE -16 208 -16 176
WIRE 336 208 272 208
WIRE 752 208 752 160
WIRE 272 256 272 208
WIRE -16 336 -16 288
WIRE 752 336 752 288
FLAG 272 256 0
FLAG -16 336 0
FLAG 752 160 0
FLAG 752 0 Vcc
IOPIN 752 0 In
FLAG 752 336 Vcc-
FLAG 368 160 Vcc
IOPIN 368 160 In
FLAG 368 224 Vcc-
SYMBOL res 416 16 R90
WINDOW 0 10 104 VBottom 2
WINDOW 3 -12 6 VTop 2
SYMATTR InstName R1
SYMATTR Value 1k
SYMBOL voltage -16 192 R0
WINDOW 3 -44 53 Right 1
WINDOW 123 0 0 Left 0
WINDOW 39 0 0 Left 0
WINDOW 0 -101 28 Left 2
SYMATTR Value SINE(0 1 16)
SYMATTR InstName V1
SYMBOL cap 192 160 R90
WINDOW 0 0 32 VBottom 2
WINDOW 3 32 32 VTop 2
SYMATTR InstName C1
SYMATTR Value 10µ
SYMBOL voltage 752 16 R0
WINDOW 123 0 0 Left 0
WINDOW 39 0 0 Left 0
SYMATTR InstName V2
SYMATTR Value 15
SYMBOL voltage 752 304 R180
WINDOW 0 24 96 Left 2
WINDOW 3 24 16 Left 2
WINDOW 123 0 0 Left 0
WINDOW 39 0 0 Left 0
SYMATTR InstName V3
SYMATTR Value -15
SYMBOL res 112 160 R90
WINDOW 0 0 56 VBottom 2
WINDOW 3 32 56 VTop 2
SYMATTR InstName R2
SYMATTR Value 100
SYMBOL LM358 368 128 R0
SYMATTR InstName U1
TEXT -48 360 Left 2 !.tran 10
